/*---------------------------------------------------------------------------*\
  =========                 |
  \\      /  F ield         | OpenFOAM: The Open Source CFD Toolbox
   \\    /   O peration     | Website:  https://openfoam.org
    \\  /    A nd           | Version:  9
     \\/     M anipulation  |
\*---------------------------------------------------------------------------*/
Build  : 9-b456138dc4bc
Exec   : decomposePar -noFields
Date   : Feb 08 2025
Time   : 23:40:16
Host   : "ALLAN-DESKTOP"
PID    : 347304
I/O    : uncollated
Case   : /home/allanhenriquest/Documentos/CasosOpenFoam/eolicTurbine
nProcs : 1
sigFpe : Enabling floating point exception trapping (FOAM_SIGFPE).
fileModificationChecking : Monitoring run-time modified files using timeStampMaster (fileModificationSkew 10)
allowSystemOperations : Allowing user-supplied system call operations

// * * * * * * * * * * * * * * * * * * * * * * * * * * * * * * * * * * * * * //
Skipping decomposing fields

Create time



--> FOAM FATAL IO ERROR: 
Cannot open include file "/home/allanhenriquest/Documentos/CasosOpenFoam/eolicTurbine/system/surfaces" while reading dictionary "/home/allanhenriquest/Documentos/CasosOpenFoam/eolicTurbine/system/controlDict/functions"

file: /home/allanhenriquest/Documentos/CasosOpenFoam/eolicTurbine/system/controlDict at line 39.

    From function static bool Foam::functionEntries::includeEntry::execute(Foam::dictionary&, Foam::Istream&)
    in file db/dictionary/functionEntries/includeEntry/includeEntry.C at line 169.

FOAM exiting

