/*---------------------------------------------------------------------------*\
  =========                 |
  \\      /  F ield         | OpenFOAM: The Open Source CFD Toolbox
   \\    /   O peration     | Website:  https://openfoam.org
    \\  /    A nd           | Version:  12
     \\/     M anipulation  |
\*---------------------------------------------------------------------------*/
Build  : 12-6aa359dae696
Exec   : createNonConformalCouples -parallel -overwrite nonCouple1 nonCouple2
Date   : Jan 09 2025
Time   : 16:31:52
Host   : "DESKTOP-POUARR7"
PID    : 84965
I/O    : uncollated
Case   : /home/allanhenriquest/openfoamcases/eolicTurbine/eolicTurbine
nProcs : 4
Slaves : 
3
(
"DESKTOP-POUARR7.84966"
"DESKTOP-POUARR7.84967"
"DESKTOP-POUARR7.84968"
)

Pstream initialised with:
    floatTransfer      : false
    nProcsSimpleSum    : 0
    commsType          : nonBlocking
    polling iterations : 0
sigFpe : Enabling floating point exception trapping (FOAM_SIGFPE).
fileModificationChecking : Monitoring run-time modified files using timeStampMaster (fileModificationSkew 10)
allowSystemOperations : Allowing user-supplied system call operations

// * * * * * * * * * * * * * * * * * * * * * * * * * * * * * * * * * * * * * //
Create time

--> FOAM Warning : 
    From function Foam::functionObjectList::functionObjectList(const Foam::Time&, bool)
    in file db/functionObjects/functionObjectList/functionObjectList.C at line 253
    Both "system/functions" and "system/controlDict/functions" found, the latter will be ignored.
[3] 
[3] 
[3] --> FOAM FATAL ERROR: 
[3] Patch named nonCouple1 not found.
Available patch names: 
6
(
walls
inlet
outlet
procBoundary3to0
procBoundary3to1
procBoundary3to2
)

[3] 
[3] 
[3]     From function const Foam::polyPatch& Foam::polyBoundaryMesh::operator[](const Foam::word&) const
[3]     in file meshes/polyMesh/polyBoundaryMesh/polyBoundaryMesh.C at line 1199.
[3] 
FOAM parallel run aborting
[3] 
[2] 
[2] 
[2] --> FOAM FATAL ERROR: 
[2] Patch named nonCouple1 not found.
Available patch names: 
6
(
walls
inlet
outlet
procBoundary2to0
procBoundary2to1
procBoundary2to3
)

[2] 
[2] 
[2]     From function const Foam::polyPatch& Foam::polyBoundaryMesh::operator[](const Foam::word&) const
[2]     in file meshes/polyMesh/polyBoundaryMesh/polyBoundaryMesh.C at line 1199.
[2] 
FOAM parallel run aborting
[2] 
Adding nonConformalCyclic interfaces between patches: 
    (nonCouple1 nonCouple2)
In regions: 
    (region0 region0)
Named:
    (nonConformalCyclic_on_nonCouple1 nonConformalCyclic_on_nonCouple2)
With transform: 
    transformType   none;

[0] 
[0] 
[0] --> FOAM FATAL ERROR: 
[0] Patch named nonCouple1 not found.
Available patch names: 
6
(
walls
inlet
outlet
procBoundary0to1
procBoundary0to2
procBoundary0to3
)

[0] 
[0] 
[0]     From function const Foam::polyPatch& Foam::polyBoundaryMesh::operator[](const Foam::word&) const
[0]     in file meshes/polyMesh/polyBoundaryMesh/polyBoundaryMesh.C at line 1199.
[0] 
FOAM parallel run aborting
[0] 
[1] 
[1] 
[1] --> FOAM FATAL ERROR: 
[1] Patch named nonCouple1 not found.
Available patch names: 
6
(
walls
inlet
outlet
procBoundary1to0
procBoundary1to2
procBoundary1to3
)

[1] 
[1] 
[1]     From function const Foam::polyPatch& Foam::polyBoundaryMesh::operator[](const Foam::word&) const
[1]     in file meshes/polyMesh/polyBoundaryMesh/polyBoundaryMesh.C at line 1199.
[1] 
FOAM parallel run aborting
[1] 
[2] #0  [1] #0  [3] #0  [0] #0  Foam::error::printStack(Foam::Ostream&)Foam::error::printStack(Foam::Ostream&)Foam::error::printStack(Foam::Ostream&)Foam::error::printStack(Foam::Ostream&) at ??:?
[2] #1  Foam::error::abort() at ??:?
[0] #1  Foam::error::abort() at ??:?
[3] #1  Foam::error::abort() at ??:?
[1] #1  Foam::error::abort() at ??:?
 at ??:?
[2] #2  Foam::polyBoundaryMesh::operator[](Foam::word const&) const[3] #2  Foam::polyBoundaryMesh::operator[](Foam::word const&) const at ??:?
[0] #2  Foam::polyBoundaryMesh::operator[](Foam::word const&) const at ??:?
[1] #2  Foam::polyBoundaryMesh::operator[](Foam::word const&) const at ??:?
[2] #3   at ??:?
[3] #3   at ??:?
[0] #3  ??? at ??:?
[1] #3   in "/opt/openfoam12/platforms/linux64GccDPInt32Opt/bin/createNonConformalCouples"
[2] #4  ? in "/opt/openfoam12/platforms/linux64GccDPInt32Opt/bin/createNonConformalCouples"
[0] #4  ? in "/opt/openfoam12/platforms/linux64GccDPInt32Opt/bin/createNonConformalCouples"
[3] #4  ?? in "/usr/lib/x86_64-linux-gnu/libc.so.6"
 in "/usr/lib/x86_64-linux-gnu/libc.so.6"
[2] #5  __libc_start_main[0] #5  __libc_start_main in "/opt/openfoam12/platforms/linux64GccDPInt32Opt/bin/createNonConformalCouples"
[1] #4  ? in "/usr/lib/x86_64-linux-gnu/libc.so.6"
[3] #5  __libc_start_main in "/usr/lib/x86_64-linux-gnu/libc.so.6"
[0] #6   in "/usr/lib/x86_64-linux-gnu/libc.so.6"
[2] #6   in "/usr/lib/x86_64-linux-gnu/libc.so.6"
[1] #5  __libc_start_main? in "/usr/lib/x86_64-linux-gnu/libc.so.6"
[3] #6  ?? in "/usr/lib/x86_64-linux-gnu/libc.so.6"
[1] #6   in "/opt/openfoam12/platforms/linux64GccDPInt32Opt/bin/createNonConformalCouples"
--------------------------------------------------------------------------
MPI_ABORT was invoked on rank 0 in communicator MPI COMMUNICATOR 3 SPLIT FROM 0
with errorcode 1.

NOTE: invoking MPI_ABORT causes Open MPI to kill all MPI processes.
You may or may not see output from other processes, depending on
exactly when Open MPI kills them.
--------------------------------------------------------------------------
 in "/opt/openfoam12/platforms/linux64GccDPInt32Opt/bin/createNonConformalCouples"
 in "/opt/openfoam12/platforms/linux64GccDPInt32Opt/bin/createNonConformalCouples"
? in "/opt/openfoam12/platforms/linux64GccDPInt32Opt/bin/createNonConformalCouples"
[DESKTOP-POUARR7:84961] 3 more processes have sent help message help-mpi-api.txt / mpi-abort
[DESKTOP-POUARR7:84961] Set MCA parameter "orte_base_help_aggregate" to 0 to see all help / error messages
