/*---------------------------------------------------------------------------*\
  =========                 |
  \\      /  F ield         | OpenFOAM: The Open Source CFD Toolbox
   \\    /   O peration     | Website:  https://openfoam.org
    \\  /    A nd           | Version:  12
     \\/     M anipulation  |
\*---------------------------------------------------------------------------*/
Build  : 12-6aa359dae696
Exec   : checkMesh
Date   : Jan 09 2025
Time   : 16:32:42
Host   : "DESKTOP-POUARR7"
PID    : 85300
I/O    : uncollated
Case   : /home/allanhenriquest/openfoamcases/eolicTurbine/eolicTurbine
nProcs : 1
sigFpe : Enabling floating point exception trapping (FOAM_SIGFPE).
fileModificationChecking : Monitoring run-time modified files using timeStampMaster (fileModificationSkew 10)
allowSystemOperations : Allowing user-supplied system call operations

// * * * * * * * * * * * * * * * * * * * * * * * * * * * * * * * * * * * * * //
Create time

--> FOAM Warning : 
    From function Foam::functionObjectList::functionObjectList(const Foam::Time&, bool)
    in file db/functionObjects/functionObjectList/functionObjectList.C at line 253
    Both "system/functions" and "system/controlDict/functions" found, the latter will be ignored.
Create polyMesh for time = 0

Time = 0s

Mesh stats
    points:           3549
    faces:            9264
    internal faces:   8016
    cells:            2880
    faces per cell:   6
    boundary patches: 3
    point zones:      0
    face zones:       0
    cell zones:       0

Overall number of cells of each type:
    hexahedra:     2880
    prisms:        0
    wedges:        0
    pyramids:      0
    tet wedges:    0
    tetrahedra:    0
    polyhedra:     0

Checking topology...
    Boundary definition OK.
    Cell to face addressing OK.
    Point usage OK.
    Upper triangular ordering OK.
    Face vertices OK.
    Number of regions: 1 (OK).

Checking patch topology for multiply connected surfaces...
    Patch               Faces    Points   Surface topology                  
    walls               960      1008     ok (non-closed singly connected)  
    inlet               144      169      ok (non-closed singly connected)  
    outlet              144      169      ok (non-closed singly connected)  

Checking geometry...
    Overall domain bounding box (-0.5 -0.6 -0.5) (0.5 0.5 0.5)
    Mesh has 3 geometric (non-empty/wedge) directions (1 1 1)
    Mesh has 3 solution (non-empty) directions (1 1 1)
    Max cell openness = 1.249e-16 OK.
    Max aspect ratio = 1.51515 OK.
    Minimum face area = 0.00458333. Maximum face area = 0.00694444.  Face area magnitudes OK.
    Min volume = 0.000381944. Max volume = 0.000381944.  Total volume = 1.1.  Cell volumes OK.
    Mesh non-orthogonality Max: 0 average: 0
    Non-orthogonality check OK.
    Face pyramids OK.
    Max skewness = 8.07435e-15 OK.
    Coupled point location match (average 0) OK.

Mesh OK.

End

